Result_files/bfs_bus_voltage_730_bus.csv
Bus_Number,Real,Imaginary,Magnitude,Angle
1,1,0,1,0
2,0.998507077409426,2.01048014212392e-05,0.998507077611829,0.0011536425682816
3,0.991449740038212,0.000120643630922207,0.991449747378415,0.00697198311090674
4,0.987690228170815,0.000176851647007552,0.98769024400397,0.0102591405444461
5,0.983904223320161,0.000231417503259661,0.983904250535239,0.0134761551820435
6,0.974860767250814,-0.00185520744016375,0.974862532524198,-0.109036522644057
7,0.972702228405959,-0.0040326182612483,0.972710587562385,-0.237534855254305
8,0.969834871215341,-0.00353026412732533,0.969841296393429,-0.208559567933448
9,0.96597717183392,-0.00400797849342532,0.965985486638315,-0.237727081942756
10,0.96243873404736,-0.00442210393183614,0.962448893083612,-0.263254272672257
11,0.961930815158997,-0.0043287778476422,0.961940555060502,-0.257834579184632
12,0.961046866297483,-0.0041673839432876,0.961055901760737,-0.248449917856683
13,0.957366643461104,-0.00478142212924842,0.957378583429543,-0.286152679518502
14,0.956044201152569,-0.00537589576664145,0.956059315530553,-0.322174321910568
15,0.95511456399359,-0.00558965867406397,0.955130920155325,-0.335310764544119
16,0.954262577023724,-0.00569828246824798,0.954279590230791,-0.34213188619164
17,0.953007050983099,-0.00626173092881147,0.953027622106373,-0.376456387754121
18,0.952684382200702,-0.00631693168917899,0.952705324701766,-0.379903594454454
19,0.998230521429356,-5.67885574860088e-05,0.998230523044684,-0.00325951230224381
20,0.996404376030369,-0.000509207790026096,0.996404506144489,-0.0292807372444723
21,0.996038841830974,-0.000652607201267964,0.996039055625906,-0.037540336171169
22,0.995708218379956,-0.000806217786797815,0.995708544774276,-0.04639197066419
23,0.989678972344183,-8.60922798272159e-05,0.989678976088771,-0.00498416598529169
24,0.986353127848417,-0.000709760603810053,0.986353383213375,-0.0412289259250709
25,0.984697231811339,-0.00100755065801628,0.984697747278444,-0.0586255128364911
26,0.974051530616597,-0.00184635802875504,0.974053280541935,-0.108606570073906
27,0.972998669220001,-0.00183559125648451,0.973000400667519,-0.108090083230835
28,0.968814349692527,-0.00286785505776712,0.96881859435231,-0.169604745403039
29,0.965910017194756,-0.0035700066362299,0.965916614550426,-0.211764427388141
30,0.964532198350888,-0.00356029242335111,0.964538769224823,-0.211489884516547
31,0.962368575980626,-0.00423130532870994,0.962377877956348,-0.251914267586613
32,0.961918675516436,-0.00441872505133461,0.961928824517892,-0.263195342740341
33,0.961781531630456,-0.0044975809790021,0.961792047596615,-0.267930420034322
34,0.998495461217213,9.55624892503279e-06,0.998495461262943,0.000548357756876153
35,0.99063187726076,0.00158196350004945,0.990633140397439,0.0914969091227689
36,0.983970087989475,0.0029179653791001,0.983974414596218,0.169910257373268
37,0.978498947123811,0.00399891079292755,0.978507118425787,0.234153992905049
38,0.974205065143375,0.00482600490865975,0.974217018571522,0.283828796679238
39,0.971745536951722,0.00529891574153007,0.971759984303545,0.312430041868591
40,0.970520975686639,0.00553502137762323,0.970536759071699,0.326762567857302
41,0.9897155806695,0.00186120544319743,0.989717330708959,0.107747208467657
42,0.983057111281333,0.00319621301539467,0.983062307190363,0.186285078278009
43,0.977584980017493,0.00427688632871856,0.977594335556662,0.250664625275928
44,0.972344672357704,0.00538643248548742,0.972359591672408,0.317394335522231
45,0.970801922759454,0.00558135408188118,0.970817966843857,0.329402427063578
46,0.969598921147511,0.00581387241284439,0.969616351451877,0.343550670789921
47,0.989719542249495,0.00186053967466476,0.989721291030172,0.107708235365948
48,0.983074701031277,0.00322472838444526,0.983079989970749,0.187943666569048
49,0.977625150580141,0.00430194956788158,0.977634615701044,0.252123181215617
50,0.973273278655305,0.00510666970332191,0.973286675661342,0.300622592671356
51,0.970809073059741,0.00558018087089282,0.970825110281798,0.329330762002831
52,0.969578999055509,0.00581713613267012,0.969596449293348,0.343750587174899
53,0.991439645801169,0.000112104381076961,0.991439652139121,0.00647856669890558
54,0.984864200732572,0.00166894595172528,0.984865614825291,0.0970930486312708
55,0.979424579269307,0.0029530276099059,0.979429031042537,0.172749908179665
56,0.975178227836939,0.00392106104449801,0.975186110835725,0.230377414036021
57,0.972107593560949,0.0046145765318818,0.972118546153415,0.271979948871184
58,0.970224323495147,0.00503304876585253,0.970237377903724,0.297219785877486
59,0.984018443707729,0.00196843371935326,0.984020412536391,0.114614512211451
60,0.978534146450386,0.00329127169429616,0.978539681483971,0.192711993635232
61,0.974274640625378,0.00422956805685107,0.974283821384538,0.248733638689483
62,0.971189837151415,0.00492525797589242,0.971202325961136,0.290565309713917
63,0.968320627202645,0.00566517351580128,0.968337199149701,0.335205943367204
64,0.983989535743975,0.00197325797138304,0.983991514293017,0.114898784985624
65,0.978512257073964,0.00329491837082321,0.97851780450386,0.19292982955895
66,0.974299725238595,0.00422541488885176,0.974308887740938,0.248483003468706
67,0.971225257955119,0.00491942005278175,0.971237716722144,0.290210323431068
68,0.969270085992807,0.00534960753655977,0.969284848690672,0.316224369358654
69,0.987681205948751,0.000169426986200671,0.987681220480517,0.00982852674652001
70,0.983027012234603,0.00133014976372461,0.98302791215778,0.0775277994607619
71,0.979519476659979,0.00219666917867427,0.979521939780687,0.128491229557524
72,0.977207286585097,0.0027861001699279,0.977211258279992,0.163354644095603
73,0.986543661917072,0.000463278404694643,0.986543770694248,0.0269059509498112
74,0.982175105651964,0.00166278919580947,0.982176513173857,0.0969997219152799
75,0.978636975995534,0.00250270584892196,0.978640176123098,0.14652437361904
76,0.976288519489318,0.00309799033671935,0.97629343479856,0.181812212217533
77,0.985670554630479,0.000768193951083096,0.985670853980933,0.0446541312675732
78,0.98214507603335,0.0016363270218035,0.982146439153896,0.0954589579404744
79,0.978589816516549,0.00251059986571192,0.978593037018749,0.14699362115576
80,0.976348969621503,0.00311960541382958,0.97635395345075,0.183069395536162
81,0.985697022973691,0.000795186621136791,0.985697343722179,0.0462219387608701
82,0.983896057073819,0.000224527968511467,0.983896082692789,0.0130750648531921
83,0.978584214439409,0.00148969995102918,0.978585348324784,0.0872213681180482
84,0.974442386985022,0.00247839990472588,0.974445538765074,0.145725955875515
85,0.971462844609779,0.00319150325947822,0.971468087046805,0.188230574362278
86,0.969657157066865,0.00362851933833773,0.969663946119264,0.214403484835602
87,0.977697191177571,0.00179725764403559,0.977698843085922,0.105324186915422
88,0.973553751462238,0.00278594028650528,0.97355773760444,0.163958265730295
89,0.970577664830825,0.00349832192216522,0.970583969435272,0.206514347884877
90,0.968766252211361,0.00393609236647895,0.968774248340017,0.232791180438323
91,0.977698312050472,0.00179713250184742,0.977699963726894,0.105316732520068
92,0.973569961243386,0.00278326361422168,0.973573939663442,0.163798011727302
93,0.97056907545571,0.00349968675611057,0.97057538503629,0.206596744928363
94,0.968698721177584,0.00397929358768777,0.968706894364102,0.235362595812644
95,0.974852316763951,-0.00186224799178681,0.974854095476664,-0.109451266323145
96,0.969392085387231,-0.000526080763598118,0.969392228136978,-0.0310939246693471
97,0.965769341908747,0.000383313381740939,0.965769417977191,0.0227406658074331
98,0.96333890508241,0.000970021335381564,0.963339393457346,0.0576932058674717
99,0.962125532943583,0.001232679399122,0.962126322600351,0.0734075606556397
100,0.968440502773982,-0.000235999168938598,0.968440531529288,-0.0139624024835631
101,0.968471941772624,-0.000177410820537282,0.968471958022243,-0.0104958034452007
102,0.962455668210081,0.00131215362422237,0.962456562664959,0.0781135387785682
103,0.96121196874629,0.00154770150342223,0.961213214766143,0.09225508039956
104,0.968478285839944,-0.000210524927462703,0.968478308721585,-0.0124547858349335
105,0.964889279905133,0.000724932846336653,0.96488955223045,0.0430469957282443
106,0.962383708422499,0.00132422515931819,0.962384619478779,0.0788380603349989
107,0.96119665439737,0.00151807801995988,0.961197853194425,0.0904907344374767
108,0.97268933273511,-0.00404387618305747,0.972697738740693,-0.23820113522937
109,0.96414563120212,-0.00216087383912334,0.96414805270865,-0.128412907483543
110,0.956816738327825,-0.000544498527440756,0.956816893257505,-0.032605474963013
111,0.951926948735278,0.000560164780847922,0.951927113550737,0.0337159002720711
112,0.948298301054949,0.00141684055378684,0.948299359496176,0.0856048391940915
113,0.945905112833432,0.00198635251685736,0.945907198450646,0.120318039310129
114,0.954993496943892,5.71051894810719e-05,0.954993498651235,0.00342608232635206
115,0.963228329789957,-0.00184220299837125,0.963230091422521,-0.109579758875235
116,0.955867039985857,-0.000253064857252798,0.955867073485193,-0.0151690008320748
117,0.950977414100511,0.000851078853853195,0.950977794937668,0.0512769416148188
118,0.947379106862846,0.00176758629645518,0.947380755811283,0.106900306818055
119,0.945016035889903,0.00233198837046785,0.945018913175195,0.141386828604212
120,0.954051280138418,0.000346888567327239,0.954051343201943,0.0208324755776866
121,0.96321888912283,-0.00187273295239743,0.963220709646408,-0.111396859362635
122,0.955883442473404,-0.000255857580790774,0.955883476715602,-0.0153361367445711
123,0.950957535366535,0.000854472163551976,0.950957919254618,0.0514824623461249
124,0.947344644373461,0.00170807341996445,0.947346184210338,0.103304845385771
125,0.944991665567403,0.00230325637900338,0.944994472460978,0.139648436217055
126,0.954112472365433,0.000368925528556732,0.954112543691427,0.0221544894335867
127,0.972690242644283,-0.00404348006079125,0.972698646995253,-0.238177579445951
128,0.964585668759658,-0.0024142586531023,0.964588690075392,-0.143405139748204
129,0.957690893314977,-0.00105159914061551,0.957691470672675,-0.0629140035699537
130,0.952030969693327,6.37225810236164e-05,0.952030971825908,0.00383499598553758
131,0.947629453479578,0.000930589611816942,0.947629910407554,0.0562654947886322
132,0.944476668360963,0.00155001530843793,0.944477940253599,0.094030121228375
133,0.943226035173563,0.00179712101774632,0.943227747192157,0.109165058168805
134,0.963670007383792,-0.00209562502058538,0.96367228598487,-0.124596883715912
135,0.956754092811403,-0.00076199034950435,0.956754396248412,-0.0456322289638737
136,0.95107091052348,0.000356928353440091,0.951070977499477,0.0215025894013622
137,0.946684509995645,0.00122095859885996,0.946685297343101,0.0738955112802853
138,0.942556164167045,0.00213505253251118,0.942558582295345,0.129784616109141
139,0.942274700883396,0.0020882211358421,0.942277014785145,0.126975776584718
140,0.963665056186191,-0.0021269768351669,0.963667403487735,-0.126461571994572
141,0.956749466011779,-0.000761167692253871,0.956749768795415,-0.0455831841207367
142,0.951076401142961,0.00035602969299163,0.951076467781738,0.0214483271926251
143,0.946674633822803,0.00122262431570761,0.946675423328268,0.0739970965418531
144,0.943502594498025,0.00184499287852608,0.943504398412232,0.112040148111033
145,0.942274599485304,0.0020882052974737,0.942276913352203,0.126974827188281
146,0.969822953004087,-0.00354079275883,0.969829416643426,-0.20918413942395
147,0.962486482867024,-0.00196203360976901,0.962488482672712,-0.116797577304939
148,0.956370739866708,-0.000630007978167219,0.956370947375152,-0.0377435146041629
149,0.951445564715429,0.000437417001899846,0.951445665264336,0.026341124768298
150,0.947741021420876,0.00123863696191954,0.947741830830215,0.0748818804463805
151,0.945273474872757,0.00177291242258319,0.945275137468703,0.107461261582782
152,0.944036682437026,0.00202018621045506,0.944038843977848,0.122609607401094
153,0.961560902326568,-0.00167406875051118,0.961562359594668,-0.0997513281554374
154,0.95549330407732,-0.000318296519174023,0.955493357093218,-0.0190865246569094
155,0.950532137332411,0.000755016326726431,0.950532437190533,0.0455105494996657
156,0.94681068618791,0.00155889902199094,0.946811969530267,0.0943359166092521
157,0.944374835493012,0.00212046348270872,0.944377216094202,0.128649556753477
158,0.969212323883465,-0.00341693737085267,0.969218347034651,-0.201994211476456
159,0.961555672547465,-0.00167313816357682,0.961557128203791,-0.0996964203976903
160,0.955441451760283,-0.000341901344989159,0.955441512934375,-0.0205030912207775
161,0.950505839357143,0.000726898256556425,0.950506117304409,0.0438168734924155
162,0.946792909830072,0.00152920088833547,0.946794144764242,0.0925404909901549
163,0.944306544120454,0.00206634145627485,0.944308804912741,0.125375023873378
164,0.943083961318564,0.00231120400413449,0.943086793333605,0.140413765220785
165,0.969822917662607,-0.00354084245688503,0.969829381483628,-0.209187083099137
166,0.961844656739089,-0.00183878947737523,0.961846414374082,-0.109534057689309
167,0.955060137824767,-0.000401977357757218,0.955060222419329,-0.0241153449789533
168,0.94952922788675,0.000786580027305432,0.949529553684005,0.0474632103798064
169,0.945801939646303,0.00156684792552099,0.945803237492414,0.0949180662271936
170,0.943314409496832,0.00208009151780989,0.943316702886724,0.126342045243794
171,0.942098427381359,0.00234528417519475,0.942101346582358,0.142633299778983
172,0.960955577466142,-0.00152486703137277,0.96095678731291,-0.0909182213347143
173,0.95410400536537,-0.000109326856917725,0.954104011629027,-0.00656528787865467
174,0.948604197624353,0.00110607740849976,0.948604842470128,0.0668071454462364
175,0.944877561879248,0.00188609985121765,0.944879444329022,0.114369757569317
176,0.942352193939284,0.00237270095410343,0.942355180986447,0.144261842136305
177,0.941153374511347,0.00263487444007788,0.941157062831391,0.160406151252776
178,0.960922184875228,-0.00155139596838733,0.960923437228395,-0.0925031865328873
179,0.954109061846382,-0.000110186987814531,0.954109068208953,-0.00661690532395498
180,0.948640858369323,0.0010999205035115,0.948641496031457,0.0664327009047087
181,0.944843595432738,0.00185898414122326,0.944845424210914,0.112729565560346
182,0.942341528462054,0.00237445345721721,0.942344519957229,0.144370029037519
183,0.941197386975212,0.00266046456712533,0.941201147109734,0.161956447568311
184,0.965968781561725,-0.00401494793368357,0.965977125380697,-0.238142527250777
185,0.960556067220688,-0.00268194247646699,0.960559811302723,-0.159973572329105
186,0.956386066087227,-0.00161889646905486,0.956387436257701,-0.0969857778601859
187,0.953405258383547,-0.00086261034297442,0.953405648614482,-0.0518393601209501
188,0.952230741882615,-0.000557229866769203,0.952230904923507,-0.0335285498943684
189,0.959617949008593,-0.00239078870177758,0.959620927205152,-0.142746203365063
190,0.955482783149519,-0.00130179428672977,0.955483669961719,-0.0780623927381297
191,0.951547126611485,-0.000220305671554422,0.951547152114472,-0.0132653282263344
192,0.951337216387603,-0.000242208023624268,0.951337247220375,-0.0145873586978181
193,0.959607340553526,-0.00235668142831092,0.959610234413726,-0.140711332986748
194,0.955491450087409,-0.00127093373086301,0.955492295344493,-0.0762111433516924
195,0.952530136571054,-0.000518085513502923,0.952530277465588,-0.0311634343982769
196,0.951348939895414,-0.000211657991847706,0.951348963440458,-0.012747278022227
197,0.962430103967954,-0.0044293368223831,0.962440296355287,-0.263687215501623
198,0.956836271757267,-0.00307774158229265,0.95684122164735,-0.184295892766054
199,0.952420183227599,-0.00205435286107864,0.952422398825737,-0.123585753535081
200,0.949879225851315,-0.00144787598982846,0.949880329330372,-0.0873343862777641
201,0.948599907319911,-0.00113376166309364,0.948600584852683,-0.0684795843182076
202,0.955946179808769,-0.0027291665086181,0.955950075600609,-0.163575419827944
203,0.950543370439738,-0.00140630615878947,0.950544410737315,-0.0847676721742309
204,0.948915262357117,-0.00111946737439868,0.948915922693617,-0.0675937342812928
205,0.947638031954764,-0.000805825735552301,0.947638374572397,-0.0487215592712717
206,0.9559496475908,-0.00272976644483031,0.955953545081464,-0.163610783920578
207,0.951451452706865,-0.00175743067288693,0.951453075784915,-0.105831196685791
208,0.948930512109379,-0.0011220786663574,0.948931175519438,-0.0677503158338497
209,0.947625104442718,-0.000770909630213817,0.947625418016913,-0.0466111104973213
210,0.961924300166054,-0.00433401740206445,0.961934063726197,-0.25814840641194
211,0.957792140799554,-0.00324666917125723,0.957797643470739,-0.194217221658817
212,0.955440949943501,-0.00261154287733625,0.955444519051284,-0.156608330701168
213,0.954271497763003,-0.00230465776785676,0.954274280744416,-0.13837456834933
214,0.956894938453788,-0.00292929741983796,0.956899422103417,-0.175396324166422
215,0.954532334999766,-0.00225994782300141,0.954535010318777,-0.135653058033224
216,0.956906679083717,-0.0028989577521849,0.956911070283481,-0.173577569971116
217,0.956881081310437,-0.00292689767083755,0.956885557681694,-0.175255174207506
218,0.954566650836823,-0.00226589987788075,0.954569340169737,-0.136005438536308
219,0.953389734673755,-0.00199024278887372,0.953391812030946,-0.119607273098192
220,0.961038513286859,-0.00417441359932163,0.961047579337003,-0.248871167691246
221,0.955612358606364,-0.00287501003488566,0.955616683406019,-0.17237684567007
222,0.951996311058651,-0.00196806939728447,0.951998345359083,-0.118447843026696
223,0.94958190319946,-0.00137027396038709,0.949582891871287,-0.082679398108931
224,0.948360216830092,-0.00108077011659252,0.948360832663425,-0.0652953786950426
225,0.953826812156911,-0.00227461003715911,0.953829524307271,-0.136634142024591
226,0.951092505806637,-0.00161720949696416,0.951093880733182,-0.097423950770617
227,0.948662737602426,-0.00104956464343949,0.9486633182016,-0.0633898618292425
228,0.947380691240787,-0.000717119407597823,0.947380962652362,-0.0433700074265283
229,0.954649451105281,-0.00257872493400028,0.954652933959719,-0.15476853384751
230,0.951083269348305,-0.00164818520057533,0.951084697463226,-0.0992909499722462
231,0.948697934564831,-0.00102298000075123,0.948698486103808,-0.0617819557912815
232,0.947488649799813,-0.000800994424273184,0.947488988374821,-0.0484370857645667
233,0.957355204384441,-0.0047906179368197,0.957367190466746,-0.286706435387889
234,0.952516615583213,-0.00352392878104213,0.952523134121241,-0.211970397153564
235,0.948898817073345,-0.0025695359071219,0.948902296107439,-0.155151635015879
236,0.954940094981296,-0.00414696520921247,0.954949099336364,-0.248813629169491
237,0.953749297325255,-0.00383667074954585,0.953757014228917,-0.230483897811567
238,0.951572613726736,-0.0031646611494541,0.951577876095763,-0.19054884130232
239,0.94797695478299,-0.00224697940734258,0.947979617774606,-0.135807305168673
240,0.95404515546294,-0.0037960903869703,0.954052707644883,-0.227975383314671
241,0.95286830354204,-0.00348828265168522,0.952874688514152,-0.209748797520824
242,0.951614533459136,-0.00320452006913507,0.951619928984005,-0.192940287124161
243,0.94800245598344,-0.00221870512973037,0.948005052308841,-0.134094808523695
244,0.953986824974992,-0.00378589972396767,0.953994337122913,-0.227377288068097
245,0.952830462069503,-0.00351425083128988,0.952836942717109,-0.211318629925431
246,0.956031900087879,-0.00538623097343246,0.956047072831531,-0.32279784501024
247,0.948048067566335,-0.00346749606653422,0.948054408747322,-0.209558999154749
248,0.941273531567972,-0.00186124693784038,0.941275371753986,-0.113294862337399
249,0.936324906255895,-0.000671203548286328,0.936325146831651,-0.0410724137174137
250,0.932592149986335,0.000206642177721389,0.932592172880045,0.0126955008781026
251,0.930107212479719,0.000791451549754212,0.930107549212643,0.0487544037254576
252,0.928895716898306,0.00108178375996843,0.928896346816006,0.0667261293631927
253,0.947131529435008,-0.00314485399694951,0.947136750504678,-0.190244114386604
254,0.939418111298349,-0.00121396810756323,0.93941889567643,-0.074040738062245
255,0.935409002460703,-0.000349415955422361,0.935409067721731,-0.0214024651851788
256,0.931672490272728,0.000528784026421904,0.931672640332179,0.032519034372098
257,0.929109903738338,0.00112652947517856,0.92911058668671,0.069470094480167
258,0.92796271985678,0.00137255996138398,0.927963734940563,0.0847467617859031
259,0.947136399340922,-0.00311299162699239,0.94714151512504,-0.188315684789996
260,0.94035972612522,-0.00157246471795422,0.940361040858025,-0.0958096197581938
261,0.935402352146418,-0.000315248944754283,0.935402405268956,-0.0193098010765841
262,0.931620699254604,0.00053755928530035,0.931620854344525,0.0330605308492882
263,0.929173851728117,0.00111573631918897,0.929174521606571,0.068799774439525
264,0.927993577063295,0.00143410295010682,0.927994685179824,0.0885436958273521
265,0.955106343375234,-0.00559654885421215,0.955122740025955,-0.335726970662581
266,0.950348773819833,-0.00443275195379891,0.950359111699753,-0.267245188025488
267,0.946776922406175,-0.00351851121948143,0.946783460312922,-0.212927575871301
268,0.944393117623306,-0.00291568649635553,0.944397618507169,-0.176892436767666
269,0.943230461565506,-0.00262636975119264,0.94323411804448,-0.159536316331784
270,0.9494536953179,-0.00414590497362495,0.949462747073768,-0.250187395832014
271,0.945861820092104,-0.00319580908295196,0.945867218960274,-0.193586073493516
272,0.943455370053045,-0.00258926747701551,0.943458923105821,-0.157245091507023
273,0.942338121466779,-0.0022750480803771,0.942340867740175,-0.13832656980599
274,0.94944227147198,-0.00414391161285615,0.949451314634578,-0.250070115487707
275,0.945896645472325,-0.00316910038542771,0.94590195428123,-0.191961139113403
276,0.943484416934976,-0.00256149076345815,0.943487894058033,-0.155553442948292
277,0.954239223568545,-0.00531410288324784,0.954254020419172,-0.319073574075823
278,0.954253916102925,-0.00570544026238395,0.954270972232916,-0.342564747773516
279,0.948681591000729,-0.00431836409252564,0.948691419467948,-0.260806502797964
280,0.944918338746336,-0.00339068542183843,0.944924422187703,-0.205595682232483
281,0.942366428420564,-0.00277634514119641,0.942370518164948,-0.168801003547611
282,0.941089776889054,-0.00247959758606361,0.941093043524007,-0.150963437601374
283,0.946857501415044,-0.00364054174415466,0.946864500089708,-0.22029360165349
284,0.944012665084077,-0.00306938759432751,0.944017655014644,-0.186292347153316
285,0.941404100335797,-0.00244550169664524,0.941407276691444,-0.14883790158251
286,0.940122931916574,-0.00214803698200381,0.940125385881208,-0.130911857332574
287,0.947769455330872,-0.00399572932356479,0.947777878150258,-0.241553543063727
288,0.94399276525272,-0.00303318819247744,0.94399763828099,-0.184099169204062
289,0.941398934261473,-0.00241164364816829,0.941402023289585,-0.146778050657477
290,0.940121328800413,-0.00214776065201982,0.940123782137901,-0.130895239697669
291,0.952998287987183,-0.00626868512049284,0.953018905016917,-0.376877928284688
292,0.947478668850211,-0.00477782476857701,0.947490715276771,-0.288921411298901
293,0.943794836078665,-0.00377018808500446,0.943802366455472,-0.228878891846399
294,0.941338998431111,-0.0030986236384444,0.941344098316731,-0.188600935316125
295,0.940129365038611,-0.00276417029589465,0.940133428639428,-0.168460683527781
296,0.94654345513621,-0.00445040674654498,0.946553917419079,-0.269388207553368
297,0.942880870940398,-0.00341404020055355,0.942887051801972,-0.207459124220068
298,0.940412776219946,-0.00274052609508766,0.94041676939588,-0.16696937597248
299,0.939214555818313,-0.00240816983286626,0.939217643117364,-0.146907503247592
300,0.945639957757713,-0.00406354885115242,0.945648688539922,-0.246206565253625
301,0.94285530284844,-0.00340959684487076,0.942861467798991,-0.207194738045888
302,0.940383611962439,-0.00273547907539131,0.940387590567472,-0.166667051514235
303,0.939218931108516,-0.00240885950218356,0.939222020161753,-0.146948890958017
304,0.952673881654379,-0.00632567326995407,0.952694882388239,-0.380433495318001
305,0.945891888075535,-0.00466323554650369,0.945903382853061,-0.282465210322658
306,0.940340679322132,-0.00329619538659838,0.940346456414887,-0.200839243419298
307,0.936006748235773,-0.00224391677062897,0.93600943793606,-0.137356610386917
308,0.932930594193522,-0.00150887230788275,0.932931814377621,-0.0926670646491097
309,0.931083333846346,-0.00108884065798546,0.93108397050986,-0.0670036113394129
310,0.944937325523817,-0.00433233940983727,0.944947256905308,-0.262687289057076
311,0.939421146335885,-0.00293886936519542,0.939425743279464,-0.179242571354554
312,0.935031715135779,-0.00187717594925058,0.9350335994494,-0.11502723710463
313,0.931979768006202,-0.00114646657956596,0.931980473163741,-0.0704818553825283
314,0.930120696570401,-0.000791053140551951,0.930121032959517,-0.0487291547896375
315,0.944982165249103,-0.00434010955615291,0.944992131813721,-0.263145931104853
316,0.939419973981334,-0.00297157446046492,0.93942467381364,-0.181237478393036
317,0.935079047888642,-0.00191844383616752,0.935081015862841,-0.11755004143217
318,0.932023184534955,-0.00118709743006768,0.932023940524591,-0.072976334669265
319,0.930151610444609,-0.000763012884549683,0.930151923398195,-0.0470003037160368
320,0.998220497229387,-6.52024617278528e-05,0.998220499358857,-0.0037424856291022
321,0.991717847081216,0.00150090701979335,0.991718982848107,0.0867137485435824
322,0.987005589611329,0.00265462263001558,0.987009159504265,0.154100754597503
323,0.983437781437864,0.00349688612913886,0.983443998493066,0.203730196274834
324,0.9810559979369,0.00404513464723317,0.981064337442903,0.23624322148976
325,0.979856710547499,0.00433975929559148,0.979866320839587,0.253759823513013
326,0.989882984669726,0.00212115204255254,0.989885257302397,0.122774990186753
327,0.986139151824753,0.00298768171799282,0.986143677667555,0.173587093566641
328,0.982566600822026,0.00379915585995165,0.982573945632693,0.221536648551483
329,0.980185201128783,0.00434716807712823,0.980194841030172,0.254107846473738
330,0.978940712672535,0.00468083413846718,0.97895190338241,0.273959386301203
331,0.990838031275677,0.00180516718860778,0.990839675654361,0.104384716296735
332,0.986144351922805,0.00298681358165478,0.986148875111979,0.173535739263316
333,0.982513960927965,0.00383938811925297,0.982521462523587,0.223894645962066
334,0.980130862624266,0.00432459353542394,0.980140403196315,0.25280231366996
335,0.978957209674088,0.0046465076870686,0.978968236668872,0.271945778784737
336,0.996395270264918,-0.000516816374395893,0.996395404297643,-0.0297185216191981
337,0.990502555454393,0.000916255742600432,0.99050297924149,0.0530009455729964
338,0.985759329282289,0.00207591888884294,0.985761515127417,0.120659487138879
339,0.982195613066927,0.00296065114855968,0.982200075230673,0.17270724833323
340,0.979834014359495,0.00356936764571073,0.9798405156357,0.208717797108005
341,0.978687206794092,0.00388156469928009,0.978694904087549,0.227239211412534
342,0.989603905625616,0.00125574604633199,0.989604702357262,0.072704755477016
343,0.984841121561022,0.00238706522116614,0.984844014449975,0.138873663751772
344,0.981275015441445,0.00327188354550054,0.981280470177382,0.191041675926103
345,0.978900941187506,0.00388237531081571,0.978908640014909,0.227237041186366
346,0.977816457163134,0.00421579075404793,0.977825545171911,0.247025419854704
347,0.989659667180992,0.00118374175436106,0.989660375123372,0.0685320180896265
348,0.984889623258617,0.0023788765516227,0.984892496192426,0.138390453218442
349,0.981293364060704,0.00326879520985243,0.981298808402261,0.190857783968149
350,0.978927815227358,0.00390958593500849,0.97893562213661,0.228823391571881
351,0.977826737248216,0.00421411969471173,0.977835817958359,0.246924908920167
352,0.996029539290247,-0.00066044515572196,0.996029758253509,-0.0379915584670876
353,0.989982782977676,0.000783874608160152,0.989983093316055,0.0453671499153222
354,0.985135984533253,0.00193140305183057,0.985137877832363,0.112330788197899
355,0.981476272685788,0.00278330298534294,0.981480219169339,0.16248083740698
356,0.979000361193141,0.00338000966229968,0.979006195936276,0.19781353161768
357,0.977764759837235,0.00365813775897358,0.97777160295819,0.214361250418189
358,0.989087364211898,0.00112304507935867,0.989088001784416,0.0650556441489511
359,0.984223481188139,0.0022417704354341,0.98422603423034,0.13050263982056
360,0.98061351492431,0.00305358715582572,0.980618269280523,0.17841594903552
361,0.978057166413844,0.00372665578149697,0.978064266158821,0.218310976095035
362,0.976834814851217,0.00397092694210719,0.976842885916763,0.232911540261791
363,0.989062005729395,0.00109599819084308,0.989062612977302,0.0634905037525826
364,0.984252093864234,0.00226848141059716,0.984254708032448,0.132053750660927
365,0.980541322159435,0.00309715506660111,0.980546213511469,0.180974855074896
366,0.978068158543647,0.00372489289418632,0.97807525149348,0.218205253180484
367,0.976820199625175,0.00397331902727635,0.976828280538529,0.233055331448273
368,0.995699018028992,-0.000813990461852116,0.995699350750201,-0.0468396641895385
369,0.989710126531191,0.000608140970686511,0.989710313371456,0.0352061736562831
370,0.984887602797471,0.00173539334375536,0.984889131696662,0.100956303245691
371,0.981254882283328,0.00258646264555044,0.981258291070136,0.151024013157222
372,0.978831305002734,0.00314044791898097,0.978836342841073,0.183825132309517
373,0.977622898240648,0.00341716472264155,0.977628870369112,0.200269776314541
374,0.988784841393801,0.00095255014155707,0.988785300215338,0.0551961192340202
375,0.983948738919466,0.00201899349715854,0.983950810333499,0.117566738309621
376,0.980353317414818,0.00292657125784213,0.980357685635996,0.171040053056622
377,0.977924248905722,0.00344971647713171,0.977930333480659,0.202115220090844
378,0.976731408532649,0.00372379939134544,0.976738507020215,0.218439740225415
379,0.988871070967657,0.0009067256718291,0.98887148666961,0.0525362113804491
380,0.984022768252021,0.00206947514295331,0.984024944381868,0.120497228836842
381,0.980326034534097,0.00289956034150666,0.980330322613517,0.169466156873659
382,0.977895444529632,0.00345457256549866,0.977901546426539,0.202405692510087
383,0.976681886604915,0.00373199320805909,0.976689016727146,0.218931488598233
384,0.989669951507628,-9.3766630972255e-05,0.989669955949605,-0.00542850895857873
385,0.983775988022862,0.00128442229762844,0.983776826496232,0.0748055816035067
386,0.979056538019906,0.00238664631348191,0.979059446979677,0.139669656225658
387,0.975476465593987,0.00321556046584045,0.975481765466093,0.188869114364825
388,0.9730931013494,0.00376778998947798,0.973100395712179,0.221846589365365
389,0.971930133801983,0.00402194942169925,0.971938455391848,0.237094626381461
390,0.98286297580734,0.00162721734553539,0.982864322808164,0.0948581881318449
391,0.978186105355997,0.00269052605574314,0.978189805529576,0.157593118601985
392,0.974555307915859,0.00352769666692806,0.974561692675609,0.207398436992756
393,0.972159686790203,0.0040817217242458,0.97216825553618,0.240561357273098
394,0.971053822241377,0.00432642551669604,0.971063460154556,0.255273473627223
395,0.982909009133608,0.00155654393229238,0.982910241611626,0.0907340583578976
396,0.978201117333091,0.00268798434640735,0.978204810462284,0.157441826718586
397,0.974583282405954,0.00352298086863029,0.974589649924195,0.207115245577571
398,0.972178785376232,0.00411038167190561,0.972187474704902,0.242245687963449
399,0.971040922237201,0.0042966980440249,0.97105042828545,0.253522844877799
400,0.986342306462921,-0.000718947212098994,0.986342568484038,-0.0417630201815969
401,0.979279945083571,0.000940258220412176,0.979280396479171,0.0550126768117519
402,0.973354134817675,0.00230462382713362,0.973356863158446,0.135659743135656
403,0.968578857119905,0.00337354201105166,0.968584732093895,0.199559319531679
404,0.965004426100284,0.00418453995674379,0.965013498749001,0.248449612779417
405,0.962635921858838,0.00473766765945981,0.962647580139205,0.281982173988722
406,0.961458871409401,0.00501374903328542,0.961471943995875,0.298779348560053
407,0.978410822818436,0.00127691391643404,0.9784116560617,0.0747760909519152
408,0.972480068879379,0.00264192611049967,0.972483657518837,0.155654443077415
409,0.967683394716651,0.00368232587663029,0.967690400869102,0.218026592502451
410,0.964121126577944,0.00449112942433029,0.964131586951403,0.266896858642588
411,0.961762305589561,0.00504244600251105,0.961775524077545,0.300394625068454
412,0.960561574418761,0.00532237681535,0.960576319687725,0.317467006658428
413,0.978431019786776,0.0012418035102296,0.978431807821551,0.0727185263740324
414,0.972488539185131,0.00260868489341031,0.972492038056509,0.153694640033542
415,0.967650574441858,0.00365583414749828,0.967657480382894,0.216465402063459
416,0.964056084215665,0.00446975508080455,0.964066445958848,0.265644572710769
417,0.961703413692661,0.00505217368672709,0.961716684043216,0.300992554092259
418,0.96057225636856,0.00532062139683009,0.960586991748813,0.31735877317336
419,0.986342229321218,-0.000719339301902893,0.986342491628229,-0.0417857995983275
420,0.979095258590043,0.000852524989784882,0.979095629748372,0.0498889878906913
421,0.973079059860703,0.00216326431430726,0.973081464447804,0.12737475926128
422,0.968211544624498,0.003198599216354,0.968216828081966,0.189282569245958
423,0.964529784330931,0.00397669805072667,0.964537982139044,0.236225700216175
424,0.962079047351177,0.00449501489522038,0.962089548072869,0.267694748224995
425,0.960844100343051,0.00475470859745431,0.96085586453843,0.28352415519851
426,0.978153338196681,0.00113829574808694,0.978154000524724,0.066676164375528
427,0.972219157436439,0.00246654972412547,0.972222286287432,0.145360832341511
428,0.967351875365899,0.00350162900195437,0.967358212959185,0.207398871154064
429,0.963584166329623,0.00426173812435753,0.963593590686963,0.253406006784504
430,0.961184378722712,0.00480362041025363,0.961196381947837,0.286339323290799
431,0.959925560394842,0.00506718859076518,0.959938934463837,0.302446184999413
432,0.978167474385965,0.00116755575482964,0.978168171191978,0.0683890919299443
433,0.972198991096595,0.00246992598390466,0.972202128584177,0.145562823471091
434,0.967270794705036,0.0034831879615427,0.967277066247147,0.206323924896436
435,0.963605094363696,0.00429041400587298,0.963614645766662,0.255105532264447
436,0.961126878469285,0.00478094838478626,0.961138769368695,0.285004936752274
437,0.959886225589497,0.00504147023804652,0.959899464787126,0.300923488108556
438,0.986342214498191,-0.000719176056100955,0.986342476686164,-0.041776317421684
439,0.979157852442287,0.000908349677353856,0.979158273773207,0.0531523980273459
440,0.973157444858033,0.00225790228427153,0.973160064226508,0.132936391727449
441,0.968359571284414,0.00334886742610535,0.96836536194309,0.198144584335779
442,0.964793271370617,0.00417988926376206,0.964802325845183,0.248227804205449
443,0.962413989692182,0.00473382129391064,0.962425631734352,0.281818216196993
444,0.961243803188794,0.00500953255710158,0.961256856716922,0.29859487616625
445,0.97826001323965,0.0012182615607824,0.978260771811315,0.0713524101437526
446,0.972208942961149,0.00254407862573671,0.972212271630887,0.149931387018012
447,0.967437192414669,0.00366221461489497,0.96744412401082,0.216891019368219
448,0.963859690655145,0.0044948257211877,0.963870171095722,0.26718896861201
449,0.961504493099962,0.00504457881783768,0.961517726319627,0.300602260105301
450,0.960378358295191,0.0053129647430131,0.960393054262747,0.316966067002021
451,0.978261359256519,0.0012179711401907,0.978262117465514,0.0713353023538165
452,0.972279687470031,0.0025641057994207,0.972283068506992,0.151100657393696
453,0.967410813207947,0.00363461409636374,0.967417640903498,0.215262291063111
454,0.963927622093609,0.00448360075835636,0.963938049519158,0.266502942712435
455,0.961490154653481,0.00504697153442022,0.961503400626979,0.300749322325278
456,0.960335935665217,0.00531993648572102,0.960350670877154,0.317396005563745
457,0.986342221184597,-0.000718987623525299,0.986342483235193,-0.0417653712564779
458,0.979237353058776,0.000963004816422494,0.979237826579343,0.0563459856510866
459,0.973315655284729,0.00234712759264084,0.973318485301845,0.138167144060561
460,0.968585180735649,0.00345337515671547,0.968591337015092,0.204280415482036
461,0.965050801807954,0.00428183376792933,0.965060300795029,0.254213967979447
462,0.962713073300593,0.00483284735972314,0.962725203740649,0.287624047516617
463,0.961541390782605,0.0051084665959851,0.96155496078961,0.304397527507572
464,0.97835529022284,0.00127018958185703,0.978356114760158,0.0743865363222691
465,0.972418992872144,0.00265634990216655,0.972422621031246,0.156514075565997
466,0.967674520303443,0.00376463519156791,0.967681843232901,0.222902034889428
467,0.964128194790487,0.00459474821820805,0.964139143330023,0.27305257665303
468,0.961830283782524,0.0051390954811477,0.961844012875027,0.306130597695164
469,0.960653665158394,0.00541544778897082,0.960668929161869,0.322987385585708
470,0.97832945871104,0.0013061243457154,0.978330330585045,0.0764930130652131
471,0.97240668283239,0.00265844015383984,0.972410316749644,0.156639217023424
472,0.96768262674475,0.00376328930834207,0.967689944377866,0.222820480065834
473,0.96415927832625,0.00458964749121016,0.964170202218824,0.27274066676677
474,0.961828929507514,0.00513928614974485,0.961842659638103,0.306142386455936
475,0.960653466369773,0.00541541603850385,0.960668730197424,0.322985558803054
476,0.984686342141373,-0.00101668476045207,0.984686867002733,-0.0591576451063456
477,0.977624831832975,0.000686534889911902,0.977625072891754,0.0402358286466048
478,0.971714305607407,0.00211338088234804,0.97171660380012,0.124612361309587
479,0.96698608705246,0.00324210097775895,0.966991522078543,0.192099978709706
480,0.963464841559029,0.00409183588095176,0.963473530534825,0.2433337541538
481,0.961104153982532,0.00464538577220184,0.9611153803844,0.276930367259519
482,0.959935247498782,0.00492139727353155,0.959947862928853,0.293741503258766
483,0.97675241405827,0.000992581507648034,0.976752918391702,0.0582242857208537
484,0.970822457764485,0.00245419434313583,0.970825559804515,0.144840776299921
485,0.966106887586301,0.00354853550105752,0.966113404495503,0.210447928652841
486,0.962596924219946,0.00442836251159076,0.962607110358237,0.263583526762434
487,0.960191026606391,0.00495707460414861,0.960203822198217,0.295792110587321
488,0.959048822258118,0.00522857621419313,0.959063074820374,0.312364058004627
489,0.976753859877874,0.000992305491023564,0.976754363930109,0.0582080085872383
490,0.970817576504738,0.00242313268667391,0.970820600534697,0.143008317112334
491,0.966035371426465,0.00356042443644604,0.966041932562575,0.211168634034404
492,0.962577646998903,0.00439940897366886,0.962587700576556,0.261865432058111
493,0.960210726780961,0.00495379732740513,0.960223505197193,0.295590492159195
494,0.959050395588193,0.00522831751613166,0.959064646716748,0.312348090847249
495,0.984686370179464,-0.0010167724340365,0.984686895131336,-0.0591627448644948
496,0.977597331158895,0.000648299791017611,0.977597546120904,0.0379960493502482
497,0.971660437542269,0.00203685066306759,0.971662572421856,0.120106542410428
498,0.96691139904097,0.00314705891890409,0.966916520478994,0.186483019440746
499,0.963338100102034,0.00398007529310055,0.96334632199824,0.236718779104674
500,0.960947853882776,0.00453576042545083,0.960958558422032,0.270439231702194
501,0.959761979232597,0.00481296156156665,0.959774047044129,0.2873213138723
502,0.976726655319555,0.000954060865909869,0.976727121279972,0.0559661634421185
503,0.970781605634144,0.00234365547438969,0.970784434649933,0.138322878861269
504,0.966010612568561,0.00345718805782122,0.966016798893453,0.205050996794908
505,0.962435676024435,0.00429026542843573,0.962445238370505,0.255406652073603
506,0.960060916175799,0.00484323546852057,0.960073132473833,0.289038531693805
507,0.958867244821327,0.0051216418635511,0.958880922954786,0.306033680782005
508,0.976722837405775,0.000954769580295022,0.97672330406054,0.0560079562380523
509,0.970738938772061,0.00235077198265795,0.970741785119617,0.138748992689079
510,0.966030485270322,0.00345394628426577,0.966036659871947,0.204854509777503
511,0.962447490165396,0.00428827867406758,0.962457043539947,0.255285245190849
512,0.960008836560355,0.00485185224383918,0.96002109703077,0.289568469556642
513,0.958859277081239,0.00512292059359691,0.958872962159307,0.30611263094315
514,0.984686213176695,-0.00101695854815188,0.984686738320848,-0.0591735836784362
515,0.977472991443023,0.000656145240652546,0.977473211667281,0.0384607531046217
516,0.971418793402372,0.00205230005649947,0.971420961329763,0.121047644313847
517,0.966599231691622,0.00316705774056795,0.966604420102435,0.187728674632824
518,0.962992915095936,0.00400223971933753,0.9630012317997,0.2381223378297
519,0.960617241876524,0.00455708874217476,0.960628051041747,0.271804400087007
520,0.959425293020096,0.00483472470914895,0.959437474486852,0.288721777771478
521,0.976592321251021,0.00096360817155828,0.976592796649231,0.0565339929628397
522,0.97050285123948,0.00236537793264609,0.970505733768082,0.139645034496364
523,0.965667941207417,0.00348232326648451,0.965674220040643,0.206615082357117
524,0.962058382607044,0.00431774303088312,0.962068071629737,0.257143221437486
525,0.959725489597963,0.00486535812257159,0.959737822060645,0.290460242231119
526,0.958531181038096,0.00514333603152535,0.958544980127599,0.307437697192047
527,0.976597879283221,0.000962668781868901,0.976598353752282,0.0564785584479103
528,0.970462247664467,0.00237211564559428,0.970465146759328,0.140048667179347
529,0.965690961539766,0.00347846253459175,0.965697226309158,0.206381097484409
530,0.96206099106494,0.00431734372828272,0.962070678269389,0.257118744162698
531,0.959714898455179,0.00486713594978608,0.959727240068338,0.290569582651528
532,0.958512605406223,0.00514639191624478,0.95852642116552,0.307626317552039
533,0.984686228359927,-0.0010169401951334,0.984686753485117,-0.059172514863017
534,0.977485161678566,0.000655494533646921,0.977485381463506,0.0384221327489342
535,0.971465681162375,0.00204941995214969,0.971467842904961,0.120871937927425
536,0.966674390285867,0.00316238817800622,0.966679563006037,0.187437312117591
537,0.963044536845082,0.00401936588269826,0.963052924427966,0.239128467529041
538,0.960634390289706,0.00457633923787882,0.960645290774953,0.272947692788771
539,0.959422906967158,0.00485516681207594,0.959435191692531,0.289943246677524
540,0.976584318620863,0.000966428954507512,0.976584796810343,0.0566999501847131
541,0.970530007070639,0.00236573475980802,0.970532890388311,0.139662192551089
542,0.965817857200821,0.0034331399297826,0.965823958978945,0.203665316920386
543,0.962140569767394,0.00432982003755796,0.962150312234987,0.257840431357921
544,0.959714862462254,0.0048892285964961,0.959727316370235,0.291888508948538
545,0.958525008217493,0.00516438126446858,0.958538920551581,0.308697618297785
546,0.976595434953224,0.000964550191300321,0.976595911279864,0.0565890799220945
547,0.970538807969848,0.00236429236816085,0.970541687746557,0.139575774975226
548,0.965768066804172,0.00347346163089894,0.96577431307442,0.20606793751823
549,0.962102151502486,0.00436832919101819,0.962112068433628,0.260144004347233
550,0.959736773330303,0.0048855856345294,0.959749208402619,0.291664367956144
551,0.958483862066387,0.00517118137977316,0.958497811660809,0.309117352077775
552,0.97404405885178,-0.00185260331342144,0.974045820648847,-0.108974765578729
553,0.970418212944574,-0.000961533103487245,0.97041868930913,-0.0567711631210924
554,0.967999409438629,-0.000394490782788772,0.967999489822445,-0.0233498651330953
555,0.966792072958363,-0.000111150299418743,0.966792079347736,-0.00658718994329713
556,0.966792072958363,-0.000111150299418743,0.966792079347736,-0.00658718994329713
557,0.973124107147136,-0.00153537519213804,0.973125318388075,-0.0904000269184823
558,0.969461063619054,-0.000606373969967885,0.969461253255012,-0.0358370914097247
559,0.967093078109078,-8.00744083771847e-05,0.967093081424121,-0.00474403730146206
560,0.965892220679283,0.000202052729111279,0.965892241812751,0.0119855696116595
561,0.9731297960927,-0.00153641533324367,0.973131008968215,-0.0904607395461852
562,0.969552487876042,-0.000621980844435589,0.969552687380523,-0.0367560012285179
563,0.967069595979188,-7.6111956164448e-05,0.967069598974335,-0.00450938988035072
564,0.965862137021494,0.000207225235721748,0.965862159251529,0.0122927804892473
565,0.972991297667667,-0.00184184238124034,0.972993040941387,-0.108459005930691
566,0.968183202136598,-0.000709518993480483,0.968183462116906,-0.0419883720804661
567,0.964579861476671,0.000139150501790183,0.964579871513612,0.008265501626991
568,0.962190763620502,0.000703875441874577,0.962191021074944,0.0419138142384972
569,0.961022820566652,0.000984442624286057,0.9610233247831,0.0586920379082387
570,0.967293140575438,-0.000397561901222003,0.967293222275314,-0.0235488258906113
571,0.963681614605811,0.000452201415883974,0.963681720702112,0.0268856750255039
572,0.96129521660249,0.00101634212526354,0.96129575387294,0.0605767007011506
573,0.960121280415933,0.00129780549209612,0.960122157543833,0.0774472283401306
574,0.967247533949223,-0.000389820566347392,0.967247612502056,-0.0230913713665936
575,0.96363769184361,0.000459712203307708,0.963637801498567,0.0273334752936367
576,0.961235195002591,0.00102644938386551,0.961235743046422,0.0611829399621435
577,0.960155302578337,0.00129210011375777,0.960156171980372,0.0771040250866685
578,0.968806859793897,-0.00287409722171648,0.968811122984533,-0.169975218444015
579,0.963966513469769,-0.00169040142204219,0.963967995603604,-0.10047316637677
580,0.96035125856228,-0.000793838292021406,0.960351586660525,-0.0473613930150234
581,0.957949886240417,-0.000183266996844445,0.957949903770975,-0.01096135138794
582,0.956739007901972,0.000143119664994367,0.956739018606688,0.00857094007938404
583,0.963055145237154,-0.00137319206157141,0.963056124233782,-0.0816963147517997
584,0.959425157742607,-0.000474406909981435,0.959425275032581,-0.0283310389342254
585,0.957046660232255,0.000132124218498365,0.957046669352401,0.00790991741352551
586,0.955804646353391,0.00049599188754321,0.955804775044927,0.0297322673482646
587,0.96302112540713,-0.00136732595796797,0.963022096091616,-0.081350192534508
588,0.959437827133105,-0.000476535205127739,0.959437945476254,-0.0284577624791159
589,0.957049611069824,0.000131558210518032,0.957049620111969,0.00787600777254752
590,0.955844912946275,0.000489230313832767,0.955845038147697,0.0293257089775471
591,0.965898686059125,-0.00357959273254429,0.965905318970175,-0.212335537852666
592,0.958517317222077,-0.00183213169304247,0.958519068209469,-0.10951631629004
593,0.952320982569535,-0.000349953152250351,0.952321046868867,-0.0210547054151929
594,0.94734736602612,0.00082382937306801,0.947347724234065,0.0498253712523033
595,0.943624797902934,0.00170845769324366,0.943626344505622,0.103735413226476
596,0.941154842284713,0.00230416861658601,0.941157662854092,0.140273276318074
597,0.939899080555666,0.0025720232737222,0.939902599705473,0.156788865528297
598,0.957596715191373,-0.00151227198833376,0.957597909308429,-0.0904835292361234
599,0.95143685472114,-4.14387810381402e-06,0.951436854730164,-0.000249545437498639
600,0.946374297698987,0.00115176933121136,0.946374998569723,0.0697308551488822
601,0.942642235124543,0.00203770025108545,0.942644437560052,0.123855518131619
602,0.940209069200557,0.00265990987528756,0.940212831718182,0.162092887791315
603,0.938962976696853,0.00289317015123181,0.93896743396187,0.176541480972185
604,0.957639896254863,-0.00155199273566487,0.957641153867395,-0.0928559431213371
605,0.951355413937072,-2.28364770861402e-05,0.951355414211157,-0.00137533642691635
606,0.946423692783422,0.00114343271461641,0.94642438350889,0.0692225240433194
607,0.942708152815062,0.0020266389420689,0.94271033125207,0.123174578203554
608,0.940267243698841,0.00265021841914851,0.940270978617698,0.161492308825572
609,0.938927743725345,0.0028660937193371,0.938932118116307,0.174895847803605
610,0.964521093330288,-0.00357022026907154,0.964527700976921,-0.212082058673885
611,0.957067890355161,-0.00201948237620555,0.957070020979628,-0.120898053730687
612,0.950837527992689,-0.000737173594533511,0.950837813753827,-0.0444207617277578
613,0.945817467838877,0.000278016716205896,0.945817508699453,0.0168417105367134
614,0.942061115891445,0.00104363100598857,0.942061693967179,0.063473193556039
615,0.939577672546263,0.00155945069695528,0.939578966683444,0.0950957689399859
616,0.938358227191201,0.00182628201450009,0.938360004392456,0.111511911421422
617,0.956130658745721,-0.00172865242980899,0.956132221417492,-0.103588750815933
618,0.949898310061661,-0.000446539401998842,0.94989841501891,-0.0269342738745761
619,0.944853254890292,0.000572550882657513,0.944853428364047,0.0347194074293621
620,0.941088963938931,0.00133919955476106,0.941089916800248,0.0815336631926257
621,0.938626344236435,0.00185133789595058,0.938628170015507,0.113009517566108
622,0.937394855377792,0.00212003997705252,0.937397252747338,0.129581611509746
623,0.956148892429734,-0.00169942763501094,0.95615040268197,-0.101835529291929
624,0.949939778050851,-0.000420948135372662,0.949939871318513,-0.02538955682176
625,0.944858999932267,0.000571577885845362,0.944859172815867,0.0346601943036063
626,0.941096335281102,0.0013379573233452,0.941097286368057,0.0814573952460388
627,0.938605776763141,0.00185479232285025,0.938607609402193,0.113222863392113
628,0.937470388060598,0.00214038884739863,0.937472831475615,0.130814835268107
629,0.964520817054223,-0.00356981008628649,0.964527423184534,-0.212057753519066
630,0.957152349993063,-0.0017809490659481,0.957154006874974,-0.106608678596127
631,0.950976221985222,-0.00029906462562991,0.950976269010398,-0.0180184739525893
632,0.946005126003588,0.000896037803115523,0.946005550358352,0.0542694406599886
633,0.94229970751392,0.00180083484583055,0.9423014283057,0.109498188132405
634,0.939826572320956,0.00239710717783964,0.939829629328305,0.146137415717893
635,0.938565639180548,0.00270718179965075,0.938569543445603,0.165262454608736
636,0.956242848807227,-0.00143039493300266,0.956243918634061,-0.0857057719943115
637,0.950050962359276,2.13103141465452e-05,0.950050962598278,0.00128518480467416
638,0.945063200977963,0.00121887615568415,0.945063986988075,0.0738960322183183
639,0.941324176444811,0.00212895869592863,0.941326583936006,0.129583562290136
640,0.938909632063801,0.00271521656654981,0.938913558099565,0.165692214393098
641,0.937613557077319,0.00306408036407721,0.937618563704698,0.187239451335484
642,0.956259102100249,-0.00146560257119083,0.956260225221394,-0.087813831876682
643,0.950075817934556,1.7117289761082e-05,0.950075818088755,0.00103228441498332
644,0.945027776097049,0.00122485197052994,0.945028569862988,0.0742611073636317
645,0.941410709680526,0.00214735479832318,0.941413158732031,0.130691261971197
646,0.938906622537825,0.00271578523773051,0.938910550230874,0.165727447756556
647,0.937608950810452,0.00303188053279156,0.937613852787725,0.185272711932162
648,0.962359263751418,-0.00423903732162052,0.96236859984394,-0.252377034300895
649,0.956353125893408,-0.00275856062936508,0.956357104361565,-0.16526682349345
650,0.951539437195988,-0.00156596206282842,0.951540725758199,-0.0942923987900995
651,0.947926596712137,-0.000661368814957914,0.94792682743077,-0.0399752847756305
652,0.945544876569693,-4.65001107529741e-05,0.945544877713087,-0.00281769819382244
653,0.944352863038432,0.000260978125533239,0.944352899099942,0.0158340651496649
654,0.955453462474099,-0.00244100149735414,0.95545658061581,-0.14637947821489
655,0.950629208251544,-0.00124692231291045,0.950630026033373,-0.0751537448222876
656,0.946966839596264,-0.000334151470128104,0.946966898551444,-0.0202176753834065
657,0.944658756984307,0.000300745387079626,0.944658804857566,0.0182409157572749
658,0.94346838599661,0.000607885771673829,0.94346858182992,0.0369162176923987
659,0.955446838295101,-0.0024398577843313,0.955449953537135,-0.146311907880854
660,0.950630693239317,-0.00124720938314218,0.950631511396456,-0.0751709295000479
661,0.947020647139906,-0.000343319864350402,0.947020709371139,-0.0207712244162191
662,0.944632400423655,0.00027237993121994,0.944632439693335,0.0165209451247408
663,0.943435176086909,0.000580698419106242,0.943435354801161,0.0352664022142658
664,0.962359004971729,-0.00423921900077754,0.962368341867039,-0.252387918551055
665,0.956199604160792,-0.00270752414269324,0.956203437394072,-0.16223526033762
666,0.951215299017388,-0.00148305604761597,0.951216455145715,-0.089330757763935
667,0.947441882986863,-0.000547260138052692,0.947442041040692,-0.0330951093486702
668,0.944933291795864,7.59369414811741e-05,0.944933294847094,0.00460441629521613
669,0.943662362488516,0.00040933589255774,0.94366245126808,0.0248533993810544
670,0.95531218302405,-0.00239207016523101,0.955315177851714,-0.143466440357646
671,0.950303996442235,-0.00116389307151997,0.950304709186041,-0.0701734683937675
672,0.946462475226837,-0.000184024823610784,0.946462493117211,-0.0111402679574183
673,0.943956838117436,0.000372918736477469,0.943956911779903,0.022635217763288
674,0.942716724480213,0.000766589365084302,0.942717036164064,0.0465912234473266
675,0.955311091493581,-0.00235942556865043,0.955314005141593,-0.141508722647117
676,0.950292142992426,-0.00116179757023864,0.950292853180919,-0.0700480002378634
677,0.946506877831048,-0.000224360937763252,0.946506904422418,-0.0135814486738046
678,0.94403389274201,0.000425373860822368,0.944033988576976,0.0258170024172212
679,0.942687409571097,0.000771484203458917,0.942687725257808,0.0468901764275347
680,0.961907452595784,-0.0044285783100295,0.961917647028663,-0.263785307996829
681,0.954449112930872,-0.00280672478300604,0.954453239754854,-0.1684877890252
682,0.948225137938517,-0.00143507829996224,0.948226223887657,-0.0867134436657239
683,0.943236609409308,-0.000333632418360218,0.943236668413902,-0.0202661013078777
684,0.939503887088419,0.000517481708595318,0.939504029603688,0.0315586931430578
685,0.937049009492769,0.0011172848217633,0.937049675586494,0.0683162500742976
686,0.935844367877306,0.00142610272956024,0.935845454472409,0.0873111033337172
687,0.953513973961303,-0.00251508122890702,0.953517290967009,-0.151128572090137
688,0.947292164819053,-0.00111173550175654,0.947292817181358,-0.0672418978083952
689,0.942273143945096,-3.82103553498975e-05,0.942273144719835,-0.00232341557022216
690,0.93854178002343,0.000812278706105064,0.938542131524336,0.0495877019208718
691,0.936118862315961,0.00147252200261778,0.93612002045933,0.0901266172492896
692,0.934945912544766,0.00177597222526881,0.934947599313197,0.108835804604147
693,0.953507235898471,-0.00251395002638393,0.953510549944508,-0.151061667122749
694,0.947282588267884,-0.00114278506183691,0.947283277585538,-0.0691205876480319
695,0.942289784196056,-4.10397036313834e-05,0.94228978508976,-0.00249541260925946
696,0.938521637425316,0.000815717642871948,0.938521991916422,0.0497987095644792
697,0.936083967242082,0.00141230518616358,0.936085032640525,0.0864442378942231
698,0.934921262906187,0.00174694552168717,0.934922895030791,0.107059805903722
699,0.961907513104212,-0.00442875346857713,0.961917708342878,-0.26379572445751
700,0.954395539357857,-0.00288495959265729,0.954399899695104,-0.173193920604868
701,0.948082653336177,-0.00160955461016146,0.948084019601116,-0.0972706305038563
702,0.943000888456505,-0.000604356294900832,0.943001082118302,-0.0367200717443741
703,0.939173367898547,0.000150228681921784,0.939173379913718,0.00916494191245964
704,0.936621543524318,0.000653080087748004,0.936621771211559,0.0399507430792292
705,0.935333086883315,0.000905225542367168,0.935333524926779,0.0554514617508838
706,0.953514931718206,-0.00257022929312244,0.9535183957786,-0.15444218995792
707,0.947150756275343,-0.00128612428038886,0.947151629481055,-0.0778011815082201
708,0.942049327894455,-0.00031067088370678,0.942049379121281,-0.0188951143869413
709,0.938200108096719,0.000447357955482684,0.938200214752606,0.0273201000692599
710,0.935665553234305,0.000947133948734216,0.935666032605638,0.0579980305712715
711,0.934355802272035,0.00120271471995123,0.934356576346587,0.0737518182948026
712,0.953456794620508,-0.00259263728721887,0.953460319560345,-0.155798153712508
713,0.947145744938441,-0.00131802592202077,0.947146662005059,-0.0797314186102625
714,0.94204462833023,-0.000309837559009325,0.942044679282864,-0.0188445252930502
715,0.93820567429331,0.000446447510004309,0.938205780514885,0.0272643375195228
716,0.935655560968919,0.000948822087419426,0.935656042055742,0.0581020246669452
717,0.934349668986143,0.00120374915120639,0.93435044439789,0.0738157352514813
718,0.961774157951607,-0.00450394947433418,0.961784703800383,-0.268311856273657
719,0.956917166278462,-0.00340639015587556,0.95692322921554,-0.203958045476316
720,0.953283079949433,-0.0025790719572776,0.953286568734731,-0.155011224668451
721,0.950853081640963,-0.00204089882832133,0.950855271917942,-0.1229787355819
722,0.949629023597256,-0.00177124687442038,0.949630675459553,-0.106867892799064
723,0.95598095888047,-0.00311435108448683,0.955986031762337,-0.186654912060122
724,0.952348739978116,-0.00228770418528405,0.952351487702069,-0.137633974791749
725,0.949971012863377,-0.00172606668335027,0.949972580965822,-0.10410446839325
726,0.948714588948531,-0.00145091369378816,0.948715698423045,-0.0876250531491177
727,0.955997331195941,-0.00308472057532305,0.95600230792336,-0.184875889075527
728,0.952393597120527,-0.0022303633276031,0.952396208705573,-0.13417789895634
729,0.949905178394499,-0.00174738544882823,0.949906785582981,-0.105397570987536
730,0.948685532348966,-0.00147860332559857,0.948686684609854,-0.0893000458466772
